
**** 07/07/05 13:27:13 ********* PSpice 9.1 (Mar 1999) ******** ID# 0 ********

 ** circuit file for profile: sim1 


 ****     CIRCUIT DESCRIPTION


******************************************************************************




** WARNING: THIS AUTOMATICALLY GENERATED FILE MAY BE OVERWRITTEN BY SUBSEQUENT PROFILES

*Libraries: 
* Local Libraries :
* From [PSPICE NETLIST] section of pspice91.ini file:
.lib "nom.lib" 

*Analysis directives: 
.TRAN  0 100us 0 
.OPTIONS DIGINITSTATE= 0
.PROBE 
.INC "johnsoncounter-SCHEMATIC1.net" 


**** INCLUDING johnsoncounter-SCHEMATIC1.net ****
* source JOHNSONCOUNTER
X_U1A         $D_HI N00031 N00149 $D_HI N00015 M_UN0001 $G_DPWR $G_DGND 74HC74
+  PARAMS:
+ IO_LEVEL=0 MNTYMXDLY=0
X_U1B         $D_HI N00015 N00149 $D_HI N00020 M_UN0002 $G_DPWR $G_DGND 74HC74
+  PARAMS:
+ IO_LEVEL=0 MNTYMXDLY=0
X_U2A         $D_HI N00020 N00149 $D_HI N00025 M_UN0003 $G_DPWR $G_DGND 74HC74
+  PARAMS:
+ IO_LEVEL=0 MNTYMXDLY=0
X_U2B         $D_HI N00025 N00149 $D_HI M_UN0004 N00031 $G_DPWR $G_DGND 74HC74
+  PARAMS:
+ IO_LEVEL=0 MNTYMXDLY=0
U_DSTM1         STIM(1,1) $G_DPWR $G_DGND N00149 IO_STM IO_LEVEL=0 
+ 0 0
+ +0 1
+REPEAT FOREVER
+ +.5uS 0
+  +.5uS 1
+ ENDREPEAT

**** RESUMING johnsoncounter-schematic1-sim1.sim.cir ****
.INC "johnsoncounter-SCHEMATIC1.als"



**** INCLUDING johnsoncounter-SCHEMATIC1.als ****
.ALIASES
X_U1A           U1A(CLRbar=$D_HI D=N00031 CLK=N00149 PREbar=$D_HI Q=N00015
+  Qbar=M_UN0001 VCC=$G_DPWR GND=$G_DGND )
X_U1B           U1B(CLRbar=$D_HI D=N00015 CLK=N00149 PREbar=$D_HI Q=N00020
+  Qbar=M_UN0002 VCC=$G_DPWR GND=$G_DGND )
X_U2A           U2A(CLRbar=$D_HI D=N00020 CLK=N00149 PREbar=$D_HI Q=N00025
+  Qbar=M_UN0003 VCC=$G_DPWR GND=$G_DGND )
X_U2B           U2B(CLRbar=$D_HI D=N00025 CLK=N00149 PREbar=$D_HI Q=M_UN0004
+  Qbar=N00031 VCC=$G_DPWR GND=$G_DGND )
U_DSTM1          DSTM1(VCC=$G_DPWR GND=$G_DGND 1=N00149 )
_    _(VCC=VCC)
_    _(GND=GND)
.ENDALIASES

**** RESUMING johnsoncounter-schematic1-sim1.sim.cir ****
.END

**** 07/07/05 13:27:13 ********* PSpice 9.1 (Mar 1999) ******** ID# 0 ********

 ** circuit file for profile: sim1 


 ****     Digital Edge Triggered FF MODEL PARAMETERS


******************************************************************************




               D_HC74          
  TPCLKQLHMN    8.000000E-09 
  TPCLKQLHTY   20.000000E-09 
  TPCLKQLHMX   44.000000E-09 
  TPCLKQHLMN    8.000000E-09 
  TPCLKQHLTY   20.000000E-09 
  TPCLKQHLMX   44.000000E-09 
   TPPCQLHMN    8.000000E-09 
   TPPCQLHTY   20.000000E-09 
   TPPCQLHMX   58.000000E-09 
   TPPCQHLMN    8.000000E-09 
   TPPCQHLTY   20.000000E-09 
   TPPCQHLMX   58.000000E-09 
    TWCLKLMN   20.000000E-09 
    TWCLKLTY   20.000000E-09 
    TWCLKLMX   20.000000E-09 
    TWCLKHMN   20.000000E-09 
    TWCLKHTY   20.000000E-09 
    TWCLKHMX   20.000000E-09 
     TWPCLMN   25.000000E-09 
     TWPCLTY   25.000000E-09 
     TWPCLMX   25.000000E-09 
   TSUDCLKMN   25.000000E-09 
   TSUDCLKTY   25.000000E-09 
   TSUDCLKMX   25.000000E-09 
 TSUPCCLKHMN    6.000000E-09 
 TSUPCCLKHTY    6.000000E-09 
 TSUPCCLKHMX    6.000000E-09 
    THDCLKMN    0            
    THDCLKTY    0            
    THDCLKMX    0            
  TSUCECLKMN    0            
  TSUCECLKTY    0            
  TSUCECLKMX    0            
   THCECLKMN    0            
   THCECLKTY    0            
   THCECLKMX    0            


**** 07/07/05 13:27:13 ********* PSpice 9.1 (Mar 1999) ******** ID# 0 ********

 ** circuit file for profile: sim1 


 ****     Digital IO  MODEL PARAMETERS


******************************************************************************




               IO_STM          IO_HC           
        INLD                    3.500000E-12 
        DRVL    0              87            
        DRVH    0              87            
       AtoD1                 AtoD_HC         
       AtoD2                 AtoD_HC_NX      
       AtoD3                 AtoD_HC         
       AtoD4                 AtoD_HC_NX      
       DtoA1 DtoA_STM        DtoA_HC         
       DtoA2 DtoA_STM        DtoA_HC         
       DtoA3 DtoA_STM        DtoA_HC_E       
       DtoA4 DtoA_STM        DtoA_HC_E       
      TSWHL1                    2.742000E-09 
      TSWHL2                    2.742000E-09 
      TSWHL3                    2.751000E-09 
      TSWHL4                    2.751000E-09 
      TSWLH1                    2.758000E-09 
      TSWLH2                    2.758000E-09 
      TSWLH3                    2.763000E-09 
      TSWLH4                    2.763000E-09 
       TPWRT  100.000000E+03    2.000000E-09 



          JOB CONCLUDED

          TOTAL JOB TIME             .57
