
**** 07/07/05 22:36:07 ********* PSpice 9.1 (Mar 1999) ******** ID# 0 ********

 ** circuit file for profile: sim 


 ****     CIRCUIT DESCRIPTION


******************************************************************************




** WARNING: THIS AUTOMATICALLY GENERATED FILE MAY BE OVERWRITTEN BY SUBSEQUENT PROFILES

*Libraries: 
* Local Libraries :
* From [PSPICE NETLIST] section of pspice91.ini file:
.lib "nom.lib" 

*Analysis directives: 
.TRAN  0 300us 0 
.OPTIONS DIGINITSTATE= 0
.PROBE 
.INC "synchronouscounter-SCHEMATIC1.net" 


**** INCLUDING synchronouscounter-SCHEMATIC1.net ****
* source SYNCHRONOUSCOUNTER
X_CNT_U3A         I3 $D_HI CNT_N020312 $G_DPWR $G_DGND 74HC00 PARAMS:
+ IO_LEVEL=0 MNTYMXDLY=0
X_CNT_U2B         CNT_N020312 M_UN0001 $G_DPWR $G_DGND 74HC04 PARAMS:
+ IO_LEVEL=0 MNTYMXDLY=0
X_CNT_U2C         CNT_N021230 M_UN0002 $G_DPWR $G_DGND 74HC04 PARAMS:
+ IO_LEVEL=0 MNTYMXDLY=0
X_CNT_U4B         I1 I2 I3 $D_HI CNT_N023170 $G_DPWR $G_DGND 74HC20 PARAMS:
+ IO_LEVEL=0 MNTYMXDLY=0
X_CNT_U2D         CNT_N023170 CNT_N01937 $G_DPWR $G_DGND 74HC04 PARAMS:
+ IO_LEVEL=0 MNTYMXDLY=0
X_CNT_U1         $D_HI I3 $D_HI I2 $D_HI I1 $D_HI I0 CNT_N025638 $G_DPWR
+  $G_DGND 74HC30 PARAMS:
+ IO_LEVEL=0 MNTYMXDLY=0
X_CNT_U5A         N00014 $D_HI $D_HI $D_HI I3 M_UN0003 $G_DPWR $G_DGND 74HC73
+  PARAMS:
+ IO_LEVEL=0 MNTYMXDLY=0
X_CNT_U5B         N00014 $D_HI CNT_N01917 CNT_N01917 I2 M_UN0004 $G_DPWR
+  $G_DGND 74HC73 PARAMS:
+ IO_LEVEL=0 MNTYMXDLY=0
X_CNT_U6A         N00014 $D_HI CNT_N01927 CNT_N01927 I1 M_UN0005 $G_DPWR
+  $G_DGND 74HC73 PARAMS:
+ IO_LEVEL=0 MNTYMXDLY=0
X_CNT_U6B         N00014 $D_HI CNT_N01937 CNT_N01937 I0 M_UN0006 $G_DPWR
+  $G_DGND 74HC73 PARAMS:
+ IO_LEVEL=0 MNTYMXDLY=0
X_CNT_U4A         $D_HI I2 I3 $D_HI CNT_N021230 $G_DPWR $G_DGND 74HC20 PARAMS:
+ IO_LEVEL=0 MNTYMXDLY=0
X_CNT_U2A         CNT_N025638 N00035 $G_DPWR $G_DGND 74HC04 PARAMS:
+ IO_LEVEL=0 MNTYMXDLY=0
U_DSTM1         STIM(1,1) $G_DPWR $G_DGND N00014 IO_STM IO_LEVEL=0 
+ 0 0
+ +0 1
+REPEAT FOREVER
+ +.5uS 0
+  +.5uS 1
+ ENDREPEAT
X_CNT_1_U3A         I7 N00035 CNT_1_N020312 $G_DPWR $G_DGND 74HC00 PARAMS:
+ IO_LEVEL=0 MNTYMXDLY=0
X_CNT_1_U2B         CNT_1_N020312 M_UN0007 $G_DPWR $G_DGND 74HC04 PARAMS:
+ IO_LEVEL=0 MNTYMXDLY=0
X_CNT_1_U2C         CNT_1_N021230 M_UN0008 $G_DPWR $G_DGND 74HC04 PARAMS:
+ IO_LEVEL=0 MNTYMXDLY=0
X_CNT_1_U4B         I5 I6 I7 N00035 CNT_1_N023170 $G_DPWR $G_DGND 74HC20
+  PARAMS:
+ IO_LEVEL=0 MNTYMXDLY=0
X_CNT_1_U2D         CNT_1_N023170 CNT_1_N01937 $G_DPWR $G_DGND 74HC04 PARAMS:
+ IO_LEVEL=0 MNTYMXDLY=0
X_CNT_1_U1         N00035 I7 $D_HI I6 $D_HI I5 $D_HI I4 CNT_1_N025638 $G_DPWR
+  $G_DGND 74HC30 PARAMS:
+ IO_LEVEL=0 MNTYMXDLY=0
X_CNT_1_U5A         N00014 $D_HI N00035 N00035 I7 M_UN0009 $G_DPWR $G_DGND
+  74HC73 PARAMS:
+ IO_LEVEL=0 MNTYMXDLY=0
X_CNT_1_U5B         N00014 $D_HI CNT_1_N01917 CNT_1_N01917 I6 M_UN0010 $G_DPWR
+  $G_DGND 74HC73 PARAMS:
+ IO_LEVEL=0 MNTYMXDLY=0
X_CNT_1_U6A         N00014 $D_HI CNT_1_N01927 CNT_1_N01927 I5 M_UN0011 $G_DPWR
+  $G_DGND 74HC73 PARAMS:
+ IO_LEVEL=0 MNTYMXDLY=0
X_CNT_1_U6B         N00014 $D_HI CNT_1_N01937 CNT_1_N01937 I4 M_UN0012 $G_DPWR
+  $G_DGND 74HC73 PARAMS:
+ IO_LEVEL=0 MNTYMXDLY=0
X_CNT_1_U4A         $D_HI I6 I7 N00035 CNT_1_N021230 $G_DPWR $G_DGND 74HC20
+  PARAMS:
+ IO_LEVEL=0 MNTYMXDLY=0
X_CNT_1_U2A         CNT_1_N025638 RCO $G_DPWR $G_DGND 74HC04 PARAMS:
+ IO_LEVEL=0 MNTYMXDLY=0

**** RESUMING synchronouscounter-SCHEMATIC1-sim.sim.cir ****
.INC "synchronouscounter-SCHEMATIC1.als"



**** INCLUDING synchronouscounter-SCHEMATIC1.als ****
.ALIASES
_   CNT(ck=N00014 clr=$D_HI A=I3 B=I2 C=I1 D=I0 RCO=N00035 en=$D_HI )
X_CNT_U3A          CNT.U3A(A=I3 B=$D_HI Y=CNT_N020312 VCC=$G_DPWR GND=$G_DGND )
X_CNT_U2B          CNT.U2B(A=CNT_N020312 Y=M_UN0001 VCC=$G_DPWR GND=$G_DGND )
X_CNT_U2C          CNT.U2C(A=CNT_N021230 Y=M_UN0002 VCC=$G_DPWR GND=$G_DGND )
X_CNT_U4B          CNT.U4B(A=I1 B=I2 C=I3 D=$D_HI Y=CNT_N023170 VCC=$G_DPWR
+  GND=$G_DGND )
X_CNT_U2D          CNT.U2D(A=CNT_N023170 Y=CNT_N01937 VCC=$G_DPWR GND=$G_DGND )
X_CNT_U1          CNT.U1(A=$D_HI B=I3 C=$D_HI D=I2 E=$D_HI F=I1 G=$D_HI H=I0
+  Y=CNT_N025638 VCC=$G_DPWR GND=$G_DGND )
X_CNT_U5A          CNT.U5A(CLK=N00014 CLRbar=$D_HI J=$D_HI K=$D_HI Q=I3
+  Qbar=M_UN0003 VCC=$G_DPWR GND=$G_DGND )
X_CNT_U5B          CNT.U5B(CLK=N00014 CLRbar=$D_HI J=CNT_N01917 K=CNT_N01917
+  Q=I2 Qbar=M_UN0004 VCC=$G_DPWR GND=$G_DGND )
X_CNT_U6A          CNT.U6A(CLK=N00014 CLRbar=$D_HI J=CNT_N01927 K=CNT_N01927
+  Q=I1 Qbar=M_UN0005 VCC=$G_DPWR GND=$G_DGND )
X_CNT_U6B          CNT.U6B(CLK=N00014 CLRbar=$D_HI J=CNT_N01937 K=CNT_N01937
+  Q=I0 Qbar=M_UN0006 VCC=$G_DPWR GND=$G_DGND )
X_CNT_U4A          CNT.U4A(A=$D_HI B=I2 C=I3 D=$D_HI Y=CNT_N021230 VCC=$G_DPWR
+  GND=$G_DGND )
X_CNT_U2A          CNT.U2A(A=CNT_N025638 Y=N00035 VCC=$G_DPWR GND=$G_DGND )
_    _(CNT.clr=$D_HI)
_    _(clr=$D_HI)
_    _(CNT.D=I0)
_    _(CNT.B=I2)
_    _(CNT.ck=N00014)
_    _(CNT.en=$D_HI)
_    _(en=$D_HI)
_    _(CNT.C=I1)
_    _(CNT.A=I3)
_    _(CNT.RCO=N00035)
U_DSTM1          DSTM1(VCC=$G_DPWR GND=$G_DGND 1=N00014 )
_   CNT_1(ck=N00014 clr=$D_HI A=I7 B=I6 C=I5 D=I4 en=N00035 )
X_CNT_1_U3A          CNT_1.U3A(A=I7 B=N00035 Y=CNT_1_N020312 VCC=$G_DPWR
+  GND=$G_DGND )
X_CNT_1_U2B          CNT_1.U2B(A=CNT_1_N020312 Y=M_UN0007 VCC=$G_DPWR
+  GND=$G_DGND )
X_CNT_1_U2C          CNT_1.U2C(A=CNT_1_N021230 Y=M_UN0008 VCC=$G_DPWR
+  GND=$G_DGND )
X_CNT_1_U4B          CNT_1.U4B(A=I5 B=I6 C=I7 D=N00035 Y=CNT_1_N023170
+  VCC=$G_DPWR GND=$G_DGND )
X_CNT_1_U2D          CNT_1.U2D(A=CNT_1_N023170 Y=CNT_1_N01937 VCC=$G_DPWR
+  GND=$G_DGND )
X_CNT_1_U1          CNT_1.U1(A=N00035 B=I7 C=$D_HI D=I6 E=$D_HI F=I5 G=$D_HI
+  H=I4 Y=CNT_1_N025638 VCC=$G_DPWR GND=$G_DGND )
X_CNT_1_U5A          CNT_1.U5A(CLK=N00014 CLRbar=$D_HI J=N00035 K=N00035 Q=I7
+  Qbar=M_UN0009 VCC=$G_DPWR GND=$G_DGND )
X_CNT_1_U5B          CNT_1.U5B(CLK=N00014 CLRbar=$D_HI J=CNT_1_N01917
+  K=CNT_1_N01917 Q=I6 Qbar=M_UN0010 VCC=$G_DPWR GND=$G_DGND )
X_CNT_1_U6A          CNT_1.U6A(CLK=N00014 CLRbar=$D_HI J=CNT_1_N01927
+  K=CNT_1_N01927 Q=I5 Qbar=M_UN0011 VCC=$G_DPWR GND=$G_DGND )
X_CNT_1_U6B          CNT_1.U6B(CLK=N00014 CLRbar=$D_HI J=CNT_1_N01937
+  K=CNT_1_N01937 Q=I4 Qbar=M_UN0012 VCC=$G_DPWR GND=$G_DGND )
X_CNT_1_U4A          CNT_1.U4A(A=$D_HI B=I6 C=I7 D=N00035 Y=CNT_1_N021230
+  VCC=$G_DPWR GND=$G_DGND )
X_CNT_1_U2A          CNT_1.U2A(A=CNT_1_N025638 Y=RCO VCC=$G_DPWR GND=$G_DGND )
_    _(CNT_1.clr=$D_HI)
_    _(clr=$D_HI)
_    _(CNT_1.D=I4)
_    _(CNT_1.B=I6)
_    _(CNT_1.ck=N00014)
_    _(CNT_1.en=N00035)
_    _(CNT_1.C=I5)
_    _(CNT_1.A=I7)
_    _(CNT_1.RCO=CNT_1_RCO)
_    _(I5=I5)
_    _(I2=I2)
_    _(I0=I0)
_    _(I6=I6)
_    _(I1=I1)
_    _(I7=I7)
_    _(I3=I3)
_    _(I4=I4)
_    _(VCC=VCC)
_    _(GND=GND)
.ENDALIASES

**** RESUMING synchronouscounter-SCHEMATIC1-sim.sim.cir ****
.END

**** 07/07/05 22:36:07 ********* PSpice 9.1 (Mar 1999) ******** ID# 0 ********

 ** circuit file for profile: sim 


 ****     Digital Gate MODEL PARAMETERS


******************************************************************************




               D_HC00          D_H04C          D_HC20          D_HC30          
      TPLHMN    3.600000E-09    3.600000E-09    5.600000E-09    6.000000E-09 
      TPLHTY    9.000000E-09    9.000000E-09   14.000000E-09   15.000000E-09 
      TPLHMX   23.000000E-09   24.000000E-09   28.000000E-09   33.000000E-09 
      TPHLMN    3.600000E-09    3.600000E-09    5.600000E-09    6.000000E-09 
      TPHLTY    9.000000E-09    9.000000E-09   14.000000E-09   15.000000E-09 
      TPHLMX   23.000000E-09   24.000000E-09   28.000000E-09   33.000000E-09 


**** 07/07/05 22:36:07 ********* PSpice 9.1 (Mar 1999) ******** ID# 0 ********

 ** circuit file for profile: sim 


 ****     Digital Edge Triggered FF MODEL PARAMETERS


******************************************************************************




               D_HC73          
  TPCLKQLHMN    5.200000E-09 
  TPCLKQLHTY   13.000000E-09 
  TPCLKQLHMX   32.000000E-09 
  TPCLKQHLMN    5.200000E-09 
  TPCLKQHLTY   13.000000E-09 
  TPCLKQHLMX   32.000000E-09 
   TPPCQLHMN    6.400000E-09 
   TPPCQLHTY   16.000000E-09 
   TPPCQLHMX   39.000000E-09 
   TPPCQHLMN    6.400000E-09 
   TPPCQHLTY   16.000000E-09 
   TPPCQHLMX   39.000000E-09 
    TWCLKLMN    0            
    TWCLKLTY   20.000000E-09 
    TWCLKLMX   20.000000E-09 
    TWCLKHMN    0            
    TWCLKHTY   20.000000E-09 
    TWCLKHMX   20.000000E-09 
     TWPCLMN    0            
     TWPCLTY   20.000000E-09 
     TWPCLMX   20.000000E-09 
   TSUDCLKMN    0            
   TSUDCLKTY   30.000000E-09 
   TSUDCLKMX   30.000000E-09 
 TSUPCCLKHMN    0            
 TSUPCCLKHTY   30.000000E-09 
 TSUPCCLKHMX   30.000000E-09 
    THDCLKMN    0            
    THDCLKTY    0            
    THDCLKMX    0            
  TSUCECLKMN    0            
  TSUCECLKTY    0            
  TSUCECLKMX    0            
   THCECLKMN    0            
   THCECLKTY    0            
   THCECLKMX    0            


**** 07/07/05 22:36:07 ********* PSpice 9.1 (Mar 1999) ******** ID# 0 ********

 ** circuit file for profile: sim 


 ****     Digital IO  MODEL PARAMETERS


******************************************************************************




               IO_STM          IO_HC           
        INLD                    3.500000E-12 
        DRVL    0              87            
        DRVH    0              87            
       AtoD1                 AtoD_HC         
       AtoD2                 AtoD_HC_NX      
       AtoD3                 AtoD_HC         
       AtoD4                 AtoD_HC_NX      
       DtoA1 DtoA_STM        DtoA_HC         
       DtoA2 DtoA_STM        DtoA_HC         
       DtoA3 DtoA_STM        DtoA_HC_E       
       DtoA4 DtoA_STM        DtoA_HC_E       
      TSWHL1                    2.742000E-09 
      TSWHL2                    2.742000E-09 
      TSWHL3                    2.751000E-09 
      TSWHL4                    2.751000E-09 
      TSWLH1                    2.758000E-09 
      TSWLH2                    2.758000E-09 
      TSWLH3                    2.763000E-09 
      TSWLH4                    2.763000E-09 
       TPWRT  100.000000E+03    2.000000E-09 



          JOB CONCLUDED

          TOTAL JOB TIME             .79
